#    Name:    1iep_ligand
#    Version:    PDBbind v2024

@<TRIPOS>MOLECULE
1iep_ligand
   69    73     1     0     0
SMALL
USER_CHARGES

@<TRIPOS>ATOM
      1 O29        14.7890   52.6120   15.9830 O.2       1 STI         0.0000
      2 N3         10.9610   60.4250   11.2160 N.ar      1 STI         0.0000
      3 N10        16.2320   57.3030   13.2020 N.ar      1 STI         0.0000
      4 N13        14.8520   55.6270   12.1280 N.pl3     1 STI         0.0000
      5 N8         14.1010   57.8400   12.3270 N.ar      1 STI         0.0000
      6 N21        16.6000   51.8100   14.7980 N.am      1 STI         0.0000
      7 N51        18.3370   46.7940   22.8210 N.4       1 STI         0.0000
      8 N48        16.9170   46.9070   20.2190 N.4       1 STI         1.0000
      9 C54        19.5220   46.6550   23.6800 C.3       1 STI         0.0000
     10 C20        17.1480   55.4060   10.1540 C.3       1 STI         0.0000
     11 C2         10.8580   61.7340   11.7100 C.ar      1 STI         0.0000
     12 C11        16.4280   58.6030   13.6150 C.ar      1 STI         0.0000
     13 C4         12.0310   59.5910   11.5250 C.ar      1 STI         0.0000
     14 C52        18.3750   48.0410   21.9490 C.3       1 STI         0.0000
     15 C50        18.1720   45.5330   21.9710 C.3       1 STI         0.0000
     16 C53        17.0970   48.1400   21.0700 C.3       1 STI         0.0000
     17 C49        16.8770   45.6580   21.1040 C.3       1 STI         0.0000
     18 C46        15.6960   47.0300   19.3680 C.3       1 STI         0.0000
     19 C1         11.8790   62.2720   12.5700 C.ar      1 STI         0.0000
     20 C12        15.4330   59.5790   13.3830 C.ar      1 STI         0.0000
     21 C17        17.7740   52.5970   12.7860 C.ar      1 STI         0.0000
     22 C18        17.9150   53.4710   11.6480 C.ar      1 STI         0.0000
     23 C26        14.4230   49.1240   18.3960 C.ar      1 STI         0.0000
     24 C28        16.7470   48.5680   17.6080 C.ar      1 STI         0.0000
     25 C6         13.0020   61.4290   12.9100 C.ar      1 STI         0.0000
     26 C25        14.4230   50.2680   17.5190 C.ar      1 STI         0.0000
     27 C29        16.7510   49.6890   16.7480 C.ar      1 STI         0.0000
     28 C15        15.6980   53.7720   13.4360 C.ar      1 STI         0.0000
     29 C9         15.0670   56.9270   12.5590 C.ar      1 STI         0.0000
     30 C22        15.6290   51.7470   15.7840 C.2       1 STI         0.0000
     31 C16        16.6780   52.7270   13.6880 C.ar      1 STI         0.0000
     32 C14        15.8220   54.6410   12.3220 C.ar      1 STI         0.0000
     33 C7         14.2380   59.1550   12.7120 C.ar      1 STI         0.0000
     34 C19        16.9500   54.5020   11.3930 C.ar      1 STI         0.0000
     35 C27        15.6000   48.2600   18.4460 C.ar      1 STI         0.0000
     36 C5         13.0970   60.0700   12.3920 C.ar      1 STI         0.0000
     37 C23        15.5950   50.5580   16.6890 C.ar      1 STI         0.0000
     38 H          13.9091   55.3625   11.6270 H         1 STI         0.0000
     39 H          17.4407   51.1006   14.8078 H         1 STI         0.0000
     40 H          17.7657   46.8230   19.5242 H         1 STI         0.0000
     41 H          19.6403   47.5620   24.2911 H         1 STI         0.0000
     42 H          20.4151   46.5162   23.0530 H         1 STI         0.0000
     43 H          19.3972   45.7828   24.3386 H         1 STI         0.0000
     44 H          18.0618   55.1034    9.6216 H         1 STI         0.0000
     45 H          17.2410   56.4538   10.4757 H         1 STI         0.0000
     46 H          16.2820   55.3038    9.4834 H         1 STI         0.0000
     47 H           9.9986   62.3480   11.4406 H         1 STI         0.0000
     48 H          17.3527   58.8790   14.1218 H         1 STI         0.0000
     49 H          12.0707   58.5805   11.1183 H         1 STI         0.0000
     50 H          18.4351   48.9339   22.5886 H         1 STI         0.0000
     51 H          19.2555   48.0015   21.2908 H         1 STI         0.0000
     52 H          19.0456   45.4178   21.3125 H         1 STI         0.0000
     53 H          18.0906   44.6553   22.6290 H         1 STI         0.0000
     54 H          17.1875   49.0235   20.4209 H         1 STI         0.0000
     55 H          16.2266   48.2590   21.7319 H         1 STI         0.0000
     56 H          16.0093   45.7137   21.7778 H         1 STI         0.0000
     57 H          16.7926   44.7625   20.4708 H         1 STI         0.0000
     58 H          15.6242   46.1578   18.7016 H         1 STI         0.0000
     59 H          14.8043   47.0750   20.0105 H         1 STI         0.0000
     60 H          11.8069   63.2892   12.9549 H         1 STI         0.0000
     61 H          15.5680   60.6128   13.7011 H         1 STI         0.0000
     62 H          18.5201   51.8217   12.9600 H         1 STI         0.0000
     63 H          18.7631   53.3474   10.9746 H         1 STI         0.0000
     64 H          13.5533   48.9057   19.0158 H         1 STI         0.0000
     65 H          17.6229   47.9202   17.6438 H         1 STI         0.0000
     66 H          13.7869   61.8136   13.5612 H         1 STI         0.0000
     67 H          13.5495   50.9184   17.4733 H         1 STI         0.0000
     68 H          17.6237   49.8992   16.1296 H         1 STI         0.0000
     69 H          14.8536   53.8893   14.1152 H         1 STI         0.0000
@<TRIPOS>BOND
     1    1   30 2
     2    2   11 ar
     3    2   13 ar
     4    3   12 ar
     5    3   29 ar
     6    4   29 1
     7    4   32 1
     8    4   38 1
     9    5   29 ar
    10    5   33 ar
    11    6   30 am
    12    6   31 1
    13    6   39 1
    14    7    9 1
    15    7   14 1
    16    7   15 1
    17    8   16 1
    18    8   17 1
    19    8   18 1
    20    8   40 1
    21    9   41 1
    22    9   42 1
    23    9   43 1
    24   10   34 1
    25   10   44 1
    26   10   45 1
    27   10   46 1
    28   11   19 ar
    29   11   47 1
    30   12   20 ar
    31   12   48 1
    32   13   36 ar
    33   13   49 1
    34   14   16 1
    35   14   50 1
    36   14   51 1
    37   15   17 1
    38   15   52 1
    39   15   53 1
    40   16   54 1
    41   16   55 1
    42   17   56 1
    43   17   57 1
    44   18   35 1
    45   18   58 1
    46   18   59 1
    47   19   25 ar
    48   19   60 1
    49   20   33 ar
    50   20   61 1
    51   21   22 ar
    52   21   31 ar
    53   21   62 1
    54   22   34 ar
    55   22   63 1
    56   23   26 ar
    57   23   35 ar
    58   23   64 1
    59   24   27 ar
    60   24   35 ar
    61   24   65 1
    62   25   36 ar
    63   25   66 1
    64   26   37 ar
    65   26   67 1
    66   27   37 ar
    67   27   68 1
    68   28   31 ar
    69   28   32 ar
    70   28   69 1
    71   30   37 1
    72   32   34 ar
    73   33   36 1

